!---------------------------------------------------------------------------
!
!---------------------------------------------------------------------------
ELEMENTS
H C O N
END
SPECIES
HAN C6H11NO HNO3 H2O C6H10O
END
!---------------------------------------------------------------------------
!
!---------------------------------------------------------------------------
THERMO ALL
   300.000  1000.000  5000.000
HAN                     H   4N   2O   4     G   10.000  3000.000  404.920      1
 3.86570000e+00 3.34818000e-02-2.10245000e-05 6.32509000e-09-7.30793000e-13    2
-3.05505000e+04 1.14032000e+01 3.53818000e+00 4.64979000e-02-1.05474000e-04    3
 2.05017000e-07-1.60235000e-10-3.06041000e+04 1.16971000e+01                   4
 ! CHO
C6H10O                  C   6H  10O   1     G   100.000  5000.000  951.28      1
 1.45448390E+01 2.92735091E-02-9.32794910E-06 1.66934155E-09-1.22176686E-13    2
-3.42873602E+04-5.47438573E+01 1.67578340E+00 2.98370337E-02 7.42214311E-05    3
-1.16058291E-07 4.63687132E-11-2.94160442E+04 1.94341236E+01                   4
! CHON
C6H11NO                 C   6H  11N   1O   1G   100.000  5000.000  974.68      1
 1.35801050E+01 3.79979444E-02-1.37411016E-05 2.50707778E-09-1.78736853E-13    2
-3.04493559E+04-4.62421159E+01 1.17620653E+00 4.36367808E-02 4.72427274E-05    3
-8.68522403E-08 3.49626018E-11-2.58812519E+04 2.43113379E+01                   4
! thermo_DFT_CCSDTF12_BAC
HNO3                    H   1N   1O   3     G   100.000  5000.000  964.74      1
 8.17854972E+00 3.61026767E-03-1.17844592E-06 2.55813290E-10-2.19834015E-14    2
-1.91007121E+04-1.68116524E+01 3.37979722E+00 7.07791351E-03 1.89739812E-05    3
-3.13218649E-08 1.27351678E-11-1.74102620E+04 1.01297081E+01                   4
H2O                     H   2O   1          G   100.000  5000.000  1130.250    1
 2.84324104e+00 2.75110073e-03-7.81040007e-07 1.07245603e-10-5.79408217e-15    2
-2.99586086e+04 5.91047337e+00 4.05763720e+00-7.87951343e-04 2.90882564e-06    3
-1.47524910e-09 2.12866372e-13-3.02815867e+04-3.11369025e-01                   4
END
REACTIONS
C6H11NO + H2O + HNO3 <=> HAN + C6H10O  2.45E8  0  48
END
